@<TRIPOS>MOLECULE
ATP_clean.pdb
 43 45 0 0 0
SMALL
GASTEIGER

@<TRIPOS>ATOM
      1  PA        48.3780  -20.5450  -12.8170 P.3   332  ATP332      0.2182
      2  PB        47.3350  -23.1960  -12.3400 P.3   332  ATP332      0.2206
      3  PG        46.1280  -23.1010   -9.8140 P.3   332  ATP332     -0.0068
      4  C5'       50.7110  -21.7690  -13.2310 C.3   332  ATP332      0.0836
      5  O5'       49.9180  -20.5840  -13.3100 O.3   332  ATP332     -0.3246
      6  C4'       52.2030  -21.4340  -13.2710 C.3   332  ATP332      0.1133
      7  O4'       52.4080  -20.1490  -13.8710 O.3   332  ATP332     -0.3456
      8  C3'       52.8400  -21.4040  -11.8810 C.3   332  ATP332      0.1135
      9  O3'       53.8420  -22.4310  -11.7630 O.3   332  ATP332     -0.3864
     10  C2'       53.4460  -20.0150  -11.7450 C.3   332  ATP332      0.1285
     11  O2'       54.7770  -20.0620  -11.2100 O.3   332  ATP332     -0.3847
     12  C1'       53.4140  -19.4270  -13.1550 C.3   332  ATP332      0.1667
     13  N1        55.0940  -14.4360  -12.9330 N.ar  332  ATP332     -0.2188
     14  O1A       47.6680  -19.4750  -13.6090 O.co2 332  ATP332     -0.5170
     15  O1B       48.4560  -24.2280  -12.2560 O.co2 332  ATP332     -0.4370
     16  O1G       46.3360  -24.5920   -9.9390 O.co2 332  ATP332     -0.5767
     17  C2        55.8010  -15.5790  -12.9700 C.ar  332  ATP332      0.1205
     18  O2A       48.3590  -20.4410  -11.3100 O.co2 332  ATP332     -0.4371
     19  O2B       45.9500  -23.6070  -12.7850 O.2   332  ATP332     -0.5169
     20  O2G       46.5980  -22.5370   -8.4940 O.co2 332  ATP332     -0.5767
     21  N3        55.2420  -16.8020  -13.0290 N.ar  332  ATP332     -0.2159
     22  O3A       47.7280  -21.9490  -13.2950 O.3   332  ATP332     -0.2702
     23  O3B       47.1440  -22.4930  -10.9030 O.3   332  ATP332     -0.3141
     24  O3G       44.7810  -22.5930  -10.2760 O.2   332  ATP332     -0.6374
     25  C4        53.8960  -16.9510  -13.0520 C.ar  332  ATP332      0.1674
     26  C5        53.0590  -15.7420  -13.0110 C.ar  332  ATP332      0.1473
     27  C6        53.7430  -14.4330  -12.9470 C.ar  332  ATP332      0.1472
     28  N6        53.0270  -13.2810  -12.9050 N.pl3 332  ATP332     -0.3413
     29  N7        51.7830  -16.1540  -13.0450 N.ar  332  ATP332     -0.2306
     30  C8        51.7990  -17.5090  -13.1000 C.ar  332  ATP332      0.1004
     31  N9        53.0540  -17.9880  -13.1040 N.ar  332  ATP332     -0.2855
     32 H          50.4729  -22.4051  -14.0578 H     332  ATP332      0.0591
     33 H          50.4969  -22.2613  -12.3054 H     332  ATP332      0.0591
     34 H          52.6654  -22.2095  -13.8452 H     332  ATP332      0.0647
     35 H          52.1274  -21.5932  -11.1055 H     332  ATP332      0.0647
     36 H          54.5169  -22.3045  -12.4482 H     332  ATP332      0.2100
     37 H          52.8972  -19.4093  -11.0545 H     332  ATP332      0.0665
     38 H          55.3394  -20.5999  -11.7890 H     332  ATP332      0.2101
     39 H          54.3706  -19.5097  -13.6272 H     332  ATP332      0.0866
     40 H          56.8309  -15.5150  -12.9521 H     332  ATP332      0.1048
     41 H          52.0431  -13.3123  -12.9166 H     332  ATP332      0.1438
     42 H          53.4915  -12.4140  -12.8629 H     332  ATP332      0.1438
     43 H          50.9526  -18.0985  -13.1345 H     332  ATP332      0.1030
@<TRIPOS>BOND
     1     7     6    1
     2     7    12    1
     3    14     1    2
     4     5     4    1
     5     5     1    1
     6    22     1    1
     7    22     2    1
     8     6     4    1
     9     6     8    1
    10    12    31    1
    11    12    10    1
    12    31    30   ar
    13    31    25   ar
    14    30    29   ar
    15    25    21   ar
    16    25    26   ar
    17    29    26   ar
    18    21    17   ar
    19    26    27   ar
    20    17    13   ar
    21    27    13   ar
    22    27    28    1
    23     1    18    1
    24    19     2    2
    25     2    15    1
    26     2    23    1
    27     8     9    1
    28     8    10    1
    29    10    11    1
    30    23     3    1
    31    24     3    2
    32    16     3    1
    33     3    20    1
    34     4    32    1
    35     4    33    1
    36     6    34    1
    37     8    35    1
    38     9    36    1
    39    10    37    1
    40    11    38    1
    41    12    39    1
    42    17    40    1
    43    28    41    1
    44    28    42    1
    45    30    43    1
