@<TRIPOS>MOLECULE
295_clean.pdb
   43    46     1     0     0
SMALL
bcc


@<TRIPOS>ATOM
      1 C1          49.6250   -16.1010   -15.7660 C.ar     401 295      -0.096000
      2 N1          55.8870   -13.8040   -13.7520 N.2      401 295      -0.771000
      3 O1          50.7230   -18.4210   -11.7920 O.2      401 295      -0.200000
      4 S1          54.8060   -16.1340   -13.5300 S.3      401 295      -0.137300
      5 C2          49.2170   -17.2970   -15.1800 C.ar     401 295      -0.129000
      6 N2          53.9560   -12.4230   -13.7490 N.3      401 295      -0.927500
      7 O2          51.7160   -13.9350   -12.8050 O.2      401 295      -0.565100
      8 C3          50.6310   -15.3280   -15.1860 C.ar     401 295      -0.118000
      9 N3          57.4480   -15.5910   -13.6870 N.3      401 295      -0.807900
     10 O3          52.3720   -16.9220   -11.8010 O.2      401 295      -0.200000
     11 C4          49.8270   -17.7190   -14.0120 C.ar     401 295      -0.078000
     12 N4          51.3520   -17.4510   -12.2850 N.pl3    401 295       0.315200
     13 C5          51.2640   -15.7500   -14.0360 C.ar     401 295      -0.087600
     14 C6          50.8260   -16.9370   -13.4600 C.ar     401 295      -0.135200
     15 C7          53.7420   -14.7800   -13.5750 C.2      401 295      -0.422000
     16 C8          54.5140   -13.6500   -13.6890 C.2      401 295       0.734200
     17 C9          56.1610   -15.0810   -13.6690 C.2      401 295       0.701300
     18 C10         52.3050   -14.8160   -13.4740 C.2      401 295       0.647300
     19 C11         58.7110   -19.4890   -12.9090 C.3      401 295      -0.083400
     20 C12         57.5560   -18.9540   -12.0550 C.3      401 295      -0.079400
     21 C13         59.3360   -17.4440   -11.8030 C.3      401 295      -0.086400
     22 C14         59.1630   -17.3160   -14.0800 C.3      401 295      -0.078400
     23 C15         59.6700   -18.2860   -13.0200 C.3      401 295      -0.080700
     24 C16         57.8350   -17.4440   -12.0890 C.3      401 295      -0.106700
     25 C17         57.7500   -17.0010   -13.5630 C.3      401 295       0.192500
     26 H           49.1780   -15.7830   -16.6400 H        401 295       0.146000
     27 H1          48.4690   -17.8610   -15.6120 H        401 295       0.148000
     28 H2          54.5280   -11.6260   -13.8310 H        401 295       0.454300
     29 H3          52.9770   -12.3250   -13.7110 H        401 295       0.454300
     30 H4          50.9040   -14.4330   -15.6210 H        401 295       0.159000
     31 H5          58.1980   -14.9610   -13.7900 H        401 295       0.425800
     32 H6          49.5420   -18.6020   -13.5600 H        401 295       0.170000
     33 H7          59.1900   -20.3160   -12.4280 H        401 295       0.047200
     34 H8          58.3890   -19.8520   -13.8630 H        401 295       0.047200
     35 H9          57.5960   -19.3380   -11.0570 H        401 295       0.049700
     36 H10         56.5840   -19.2290   -12.4080 H        401 295       0.049700
     37 H11         59.7720   -16.4670   -11.8330 H        401 295       0.053700
     38 H12         59.6710   -17.7810   -10.8440 H        401 295       0.053700
     39 H13         59.7680   -16.4340   -14.1230 H        401 295       0.058200
     40 H14         59.1840   -17.7090   -15.0750 H        401 295       0.058200
     41 H15         60.6700   -18.6360   -13.1720 H        401 295       0.073700
     42 H16         57.2040   -16.8550   -11.4570 H        401 295       0.080700
     43 H17         56.9700   -17.4920   -14.1070 H        401 295       0.068700
@<TRIPOS>BOND
     1     1     8 ar  
     2     1     5 ar  
     3     8    13 ar  
     4     5    11 ar  
     5    22    25 1   
     6    22    23 1   
     7    13    18 1   
     8    13    14 ar  
     9    11    14 ar  
    10     2    16 1   
    11     2    17 2   
    12     6    16 1   
    13    16    15 2   
    14     9    17 1   
    15     9    25 1   
    16    17     4 1   
    17    15     4 1   
    18    15    18 1   
    19    25    24 1   
    20    18     7 2   
    21    14    12 1   
    22    23    19 1   
    23    23    21 1   
    24    19    20 1   
    25    12    10 1   
    26    12     3 1   
    27    24    20 1   
    28    24    21 1   
    29     1    26 1   
    30     5    27 1   
    31     6    28 1   
    32     6    29 1   
    33     8    30 1   
    34     9    31 1   
    35    11    32 1   
    36    19    33 1   
    37    19    34 1   
    38    20    35 1   
    39    20    36 1   
    40    21    37 1   
    41    21    38 1   
    42    22    39 1   
    43    22    40 1   
    44    23    41 1   
    45    24    42 1   
    46    25    43 1   
@<TRIPOS>SUBSTRUCTURE
     1 295         1 TEMP              0 ****  ****    0 ROOT
