@<TRIPOS>MOLECULE
ATP_clean.pdb
   43    45     1     0     0
SMALL
bcc


@<TRIPOS>ATOM
      1 PA          48.3780   -20.5450   -12.8170 P.3      332 ATP       1.492800
      2 PB          47.3350   -23.1960   -12.3400 P.3      332 ATP       1.641800
      3 PG          46.1280   -23.1010    -9.8140 P.3      332 ATP       1.395900
      4 C5'         50.7110   -21.7690   -13.2310 C.3      332 ATP       0.151400
      5 O5'         49.9180   -20.5840   -13.3100 O.3      332 ATP      -0.595200
      6 C4'         52.2030   -21.4340   -13.2710 C.3      332 ATP       0.092100
      7 O4'         52.4080   -20.1490   -13.8710 O.3      332 ATP      -0.431600
      8 C3'         52.8400   -21.4040   -11.8810 C.3      332 ATP       0.106100
      9 O3'         53.8420   -22.4310   -11.7630 O.3      332 ATP      -0.677800
     10 C2'         53.4460   -20.0150   -11.7450 C.3      332 ATP       0.113100
     11 O2'         54.7770   -20.0620   -11.2100 O.3      332 ATP      -0.626800
     12 C1'         53.4140   -19.4270   -13.1550 C.3      332 ATP       0.237800
     13 N1          55.0940   -14.4360   -12.9330 N.ar     332 ATP      -0.778000
     14 O1A         47.6680   -19.4750   -13.6090 O.co2    332 ATP      -0.687000
     15 O1B         48.4560   -24.2280   -12.2560 O.co2    332 ATP      -0.911000
     16 O1G         46.3360   -24.5920    -9.9390 O.co2    332 ATP      -0.910833
     17 C2          55.8010   -15.5790   -12.9700 C.ar     332 ATP       0.551900
     18 O2A         48.3590   -20.4410   -11.3100 O.co2    332 ATP      -0.687000
     19 O2B         45.9500   -23.6070   -12.7850 O.co2    332 ATP      -0.911000
     20 O2G         46.5980   -22.5370    -8.4940 O.co2    332 ATP      -0.910833
     21 N3          55.2420   -16.8020   -13.0290 N.ar     332 ATP      -0.703000
     22 O3A         47.7280   -21.9490   -13.2950 O.3      332 ATP      -0.726800
     23 O3B         47.1440   -22.4930   -10.9030 O.3      332 ATP      -0.719800
     24 O3G         44.7810   -22.5930   -10.2760 O.co2    332 ATP      -0.910833
     25 C4          53.8960   -16.9510   -13.0520 C.ar     332 ATP       0.387800
     26 C5          53.0590   -15.7420   -13.0110 C.ar     332 ATP      -0.110200
     27 C6          53.7430   -14.4330   -12.9470 C.ar     332 ATP       0.519200
     28 N6          53.0270   -13.2810   -12.9050 N.3      332 ATP      -0.887500
     29 N7          51.7830   -16.1540   -13.0450 N.2      332 ATP      -0.780100
     30 C8          51.7990   -17.5090   -13.1000 C.2      332 ATP       0.352700
     31 N9          53.0540   -17.9880   -13.1040 N.pl3    332 ATP      -0.268000
     32 H           50.4730   -22.4050   -14.0580 H        332 ATP       0.082700
     33 H1          50.4970   -22.2610   -12.3050 H        332 ATP       0.082700
     34 H2          52.6650   -22.2090   -13.8450 H        332 ATP       0.052700
     35 H3          52.1270   -21.5930   -11.1050 H        332 ATP       0.087700
     36 H4          54.5170   -22.3050   -12.4480 H        332 ATP       0.510000
     37 H5          52.8970   -19.4090   -11.0550 H        332 ATP       0.102700
     38 H6          55.3390   -20.6000   -11.7890 H        332 ATP       0.416000
     39 H7          54.3710   -19.5100   -13.6270 H        332 ATP       0.038700
     40 H8          56.8310   -15.5150   -12.9520 H        332 ATP      -0.003900
     41 H9          52.0430   -13.3120   -12.9170 H        332 ATP       0.345800
     42 H10         53.4920   -12.4140   -12.8630 H        332 ATP       0.345800
     43 H11         50.9530   -18.0990   -13.1340 H        332 ATP       0.132800
@<TRIPOS>BOND
     1     7     6 1   
     2     7    12 1   
     3    14     1 1   
     4     5     4 1   
     5     5     1 1   
     6    22     1 1   
     7    22     2 1   
     8     6     4 1   
     9     6     8 1   
    10    12    31 1   
    11    12    10 1   
    12    31    30 1   
    13    31    25 1   
    14    30    29 2   
    15    25    21 ar  
    16    25    26 ar  
    17    29    26 1   
    18    21    17 ar  
    19    26    27 ar  
    20    17    13 ar  
    21    27    13 ar  
    22    27    28 1   
    23     1    18 1   
    24    19     2 1   
    25     2    15 1   
    26     2    23 1   
    27     8     9 1   
    28     8    10 1   
    29    10    11 1   
    30    23     3 1   
    31    24     3 1   
    32    16     3 1   
    33     3    20 1   
    34     4    32 1   
    35     4    33 1   
    36     6    34 1   
    37     8    35 1   
    38     9    36 1   
    39    10    37 1   
    40    11    38 1   
    41    12    39 1   
    42    17    40 1   
    43    28    41 1   
    44    28    42 1   
    45    30    43 1   
@<TRIPOS>SUBSTRUCTURE
     1 ATP         1 TEMP              0 ****  ****    0 ROOT
