@<TRIPOS>MOLECULE
295_clean.pdb
 44 47 0 0 0
SMALL
GASTEIGER

@<TRIPOS>ATOM
      1 C1         49.6250  -16.1010  -15.7660 C.ar  401  295401401   -0.0610
      2 N1         55.8870  -13.8040  -13.7520 N.ar  401  295401401   -0.2099
      3 O1         50.7230  -18.4210  -11.7920 O.2   401  295401401   -0.1300
      4 S1         54.8060  -16.1340  -13.5300 S.2   401  295401401   -0.0472
      5 C2         49.2170  -17.2970  -15.1800 C.ar  401  295401401   -0.0596
      6 N2         53.9560  -12.4230  -13.7490 N.pl3 401  295401401   -0.3421
      7 O2         51.7160  -13.9350  -12.8050 O.2   401  295401401   -0.2859
      8 C3         50.6310  -15.3280  -15.1860 C.ar  401  295401401   -0.0487
      9 N3         57.4480  -15.5910  -13.6870 N.pl3 401  295401401   -0.3203
     10 O3         52.3720  -16.9220  -11.8010 O.2   401  295401401   -0.3961
     11 C4         49.8270  -17.7190  -14.0120 C.ar  401  295401401   -0.0309
     12 N4         51.3520  -17.4510  -12.2850 N.4   401  295401401    0.0067
     13 C5         51.2640  -15.7500  -14.0360 C.ar  401  295401401    0.0529
     14 C6         50.8260  -16.9370  -13.4600 C.ar  401  295401401    0.1324
     15 C7         53.7420  -14.7800  -13.5750 C.ar  401  295401401    0.1020
     16 C8         54.5140  -13.6500  -13.6890 C.ar  401  295401401    0.1365
     17 C9         56.1610  -15.0810  -13.6690 C.ar  401  295401401    0.1610
     18 C10        52.3050  -14.8160  -13.4740 C.2   401  295401401    0.2053
     19 C11        58.7110  -19.4890  -12.9090 C.3   401  295401401   -0.0498
     20 C12        57.5560  -18.9540  -12.0550 C.3   401  295401401   -0.0483
     21 C13        59.3360  -17.4440  -11.8030 C.3   401  295401401   -0.0456
     22 C14        59.1630  -17.3160  -14.0800 C.3   401  295401401   -0.0314
     23 C15        59.6700  -18.2860  -13.0200 C.3   401  295401401   -0.0390
     24 C16        57.8350  -17.4440  -12.0890 C.3   401  295401401   -0.0223
     25 C17        57.7500  -17.0010  -13.5630 C.3   401  295401401    0.0255
     26 H          49.1776  -15.7829  -16.6399 H     401  295401401    0.0618
     27 H          48.4688  -17.8615  -15.6118 H     401  295401401    0.0618
     28 H          54.5277  -11.6257  -13.8307 H     401  295401401    0.1437
     29 H          52.9771  -12.3250  -13.7111 H     401  295401401    0.1437
     30 H          50.9037  -14.4329  -15.6212 H     401  295401401    0.0625
     31 H          58.1976  -14.9611  -13.7896 H     401  295401401    0.1482
     32 H          52.7775  -16.1994  -12.2385 H     401  295401401    0.3292
     33 H          49.5417  -18.6019  -13.5603 H     401  295401401    0.0640
     34 H          59.1901  -20.3160  -12.4280 H     401  295401401    0.0268
     35 H          58.3886  -19.8522  -13.8625 H     401  295401401    0.0268
     36 H          57.5957  -19.3378  -11.0570 H     401  295401401    0.0269
     37 H          56.5842  -19.2293  -12.4083 H     401  295401401    0.0269
     38 H          59.7715  -16.4671  -11.8331 H     401  295401401    0.0271
     39 H          59.6707  -17.7813  -10.8443 H     401  295401401    0.0271
     40 H          59.7680  -16.4345  -14.1235 H     401  295401401    0.0286
     41 H          59.1841  -17.7095  -15.0748 H     401  295401401    0.0286
     42 H          60.6696  -18.6363  -13.1719 H     401  295401401    0.0301
     43 H          57.2039  -16.8551  -11.4567 H     401  295401401    0.0319
     44 H          56.9702  -17.4918  -14.1071 H     401  295401401    0.0501
@<TRIPOS>BOND
     1     1     8   ar
     2     1     5   ar
     3     8    13   ar
     4     5    11   ar
     5    22    25    1
     6    22    23    1
     7    13    18    1
     8    13    14   ar
     9    11    14   ar
    10     2    16   ar
    11     2    17   ar
    12     6    16    1
    13    16    15   ar
    14     9    17    1
    15     9    25    1
    16    17     4   ar
    17    15     4   ar
    18    15    18    1
    19    25    24    1
    20    18     7    2
    21    14    12    1
    22    23    19    1
    23    23    21    1
    24    19    20    1
    25    12    10    1
    26    12     3    2
    27    24    20    1
    28    24    21    1
    29     1    26    1
    30     5    27    1
    31     6    28    1
    32     6    29    1
    33     8    30    1
    34     9    31    1
    35    10    32    1
    36    11    33    1
    37    19    34    1
    38    19    35    1
    39    20    36    1
    40    20    37    1
    41    21    38    1
    42    21    39    1
    43    22    40    1
    44    22    41    1
    45    23    42    1
    46    24    43    1
    47    25    44    1
